Molarium molecule
  Molarium 3D

 58 61  0  0  0  0            999 V2000
    3.7939  -15.2607   27.2694 C   0  0  0  0  0  0  0  0  0  0  0  0
    3.9119  -14.3845   26.1513 O   0  0  0  0  0  0  0  0  0  0  0  0
    4.3089  -15.0823   25.0212 C   0  0  0  0  0  0  0  0  0  0  0  0
    3.4125  -15.5029   24.1117 C   0  0  0  0  0  0  0  0  0  0  0  0
    2.0596  -15.3427   24.3788 O   0  0  0  0  0  0  0  0  0  0  0  0
    1.2473  -15.0377   23.2487 C   0  0  0  0  0  0  0  0  0  0  0  0
    3.8304  -16.2323   22.8556 C   0  0  0  0  0  0  0  0  0  0  0  0
    5.2978  -16.5896   22.7677 C   0  0  0  0  0  0  0  0  0  0  0  0
    6.2032  -16.1573   23.7571 C   0  0  0  0  0  0  0  0  0  0  0  0
    7.4987  -16.5126   23.6982 N   0  0  0  0  0  0  0  0  0  0  0  0
    7.9340  -17.2957   22.6926 C   0  0  0  0  0  0  0  0  0  0  0  0
    9.4004  -17.5964   22.6571 C   0  0  0  0  0  0  0  0  0  0  0  0
    7.1080  -17.7330   21.7227 N   0  0  0  0  0  0  0  0  0  0  0  0
    5.7985  -17.4072   21.7319 C   0  0  0  0  0  0  0  0  0  0  0  0
    5.0165  -17.8722   20.7469 N   0  0  0  0  0  0  0  0  0  0  0  0
    5.3483  -19.0438   19.8958 C   0  0  0  0  0  0  0  0  0  0  0  0
    5.1316  -18.6649   18.4177 C   0  0  0  0  0  0  0  0  0  0  0  0
    4.7384  -20.3442   20.3205 C   0  0  0  0  0  0  0  0  0  0  0  0
    5.3229  -21.4815   20.8505 C   0  0  0  0  0  0  0  0  0  0  0  0
    4.4239  -22.5875   20.8687 C   0  0  0  0  0  0  0  0  0  0  0  0
    3.1631  -22.2591   20.3984 C   0  0  0  0  0  0  0  0  0  0  0  0
    1.9957  -23.1425   20.2248 C   0  0  0  0  0  0  0  0  0  0  0  0
    1.4378  -23.2345   18.9280 C   0  0  0  0  0  0  0  0  0  0  0  0
    0.3307  -24.0503   18.6668 C   0  0  0  0  0  0  0  0  0  0  0  0
   -0.2349  -24.7971   19.6905 C   0  0  0  0  0  0  0  0  0  0  0  0
    0.3067  -24.7199   20.9804 C   0  0  0  0  0  0  0  0  0  0  0  0
    1.3999  -23.8779   21.2760 C   0  0  0  0  0  0  0  0  0  0  0  0
    1.8763  -23.8408   22.7088 C   0  0  0  0  0  0  0  0  0  0  0  0
    1.5659  -22.5799   23.2940 O   0  0  0  0  0  0  0  0  0  0  0  0
    3.0472  -20.5773   20.1095 S   0  0  0  0  0  0  0  0  0  0  0  0
    5.7907  -15.2290   24.8356 C   0  0  0  0  0  0  0  0  0  0  0  0
    3.3594  -14.6979   28.0991 H   0  0  0  0  0  0  0  0  0  0  0  0
    4.7800  -15.6235   27.5917 H   0  0  0  0  0  0  0  0  0  0  0  0
    3.1324  -16.1058   27.0550 H   0  0  0  0  0  0  0  0  0  0  0  0
    0.2692  -14.7088   23.6131 H   0  0  0  0  0  0  0  0  0  0  0  0
    1.6825  -14.2288   22.6523 H   0  0  0  0  0  0  0  0  0  0  0  0
    1.0974  -15.9364   22.6384 H   0  0  0  0  0  0  0  0  0  0  0  0
    3.2479  -17.1601   22.7906 H   0  0  0  0  0  0  0  0  0  0  0  0
    3.5953  -15.6070   21.9876 H   0  0  0  0  0  0  0  0  0  0  0  0
    9.7731  -17.8016   23.6661 H   0  0  0  0  0  0  0  0  0  0  0  0
    9.9283  -16.7305   22.2507 H   0  0  0  0  0  0  0  0  0  0  0  0
    9.6071  -18.4692   22.0265 H   0  0  0  0  0  0  0  0  0  0  0  0
    4.8916  -17.0842   20.0654 H   0  0  0  0  0  0  0  0  0  0  0  0
    6.4315  -19.1407   19.9747 H   0  0  0  0  0  0  0  0  0  0  0  0
    5.1395  -19.5164   17.7423 H   0  0  0  0  0  0  0  0  0  0  0  0
    4.1632  -18.1739   18.2929 H   0  0  0  0  0  0  0  0  0  0  0  0
    5.9022  -17.9613   18.0875 H   0  0  0  0  0  0  0  0  0  0  0  0
    6.3713  -21.5493   21.1044 H   0  0  0  0  0  0  0  0  0  0  0  0
    4.7092  -23.5877   21.1601 H   0  0  0  0  0  0  0  0  0  0  0  0
    1.8652  -22.6608   18.1038 H   0  0  0  0  0  0  0  0  0  0  0  0
   -0.0878  -24.0930   17.6590 H   0  0  0  0  0  0  0  0  0  0  0  0
   -1.0900  -25.4430   19.4913 H   0  0  0  0  0  0  0  0  0  0  0  0
   -0.1427  -25.3153   21.7755 H   0  0  0  0  0  0  0  0  0  0  0  0
    1.4408  -24.6436   23.3055 H   0  0  0  0  0  0  0  0  0  0  0  0
    2.9594  -23.9841   22.7647 H   0  0  0  0  0  0  0  0  0  0  0  0
    0.6436  -22.6518   23.6173 H   0  0  0  0  0  0  0  0  0  0  0  0
    6.2459  -15.6020   25.7595 H   0  0  0  0  0  0  0  0  0  0  0  0
    6.2193  -14.2414   24.6325 H   0  0  0  0  0  0  0  0  0  0  0  0
  1  2  1  0  0  0  0
  2  3  1  0  0  0  0
  3  4  2  0  0  0  0
  4  5  1  0  0  0  0
  5  6  1  0  0  0  0
  4  7  1  0  0  0  0
  7  8  1  0  0  0  0
  8  9  4  0  0  0  0
  9 10  4  0  0  0  0
 10 11  4  0  0  0  0
 11 12  1  0  0  0  0
 11 13  4  0  0  0  0
 13 14  4  0  0  0  0
 14 15  1  0  0  0  0
 15 16  1  0  0  0  0
 16 17  1  0  0  0  0
 16 18  1  0  0  0  0
 18 19  4  0  0  0  0
 19 20  4  0  0  0  0
 20 21  4  0  0  0  0
 21 22  1  0  0  0  0
 22 23  4  0  0  0  0
 23 24  4  0  0  0  0
 24 25  4  0  0  0  0
 25 26  4  0  0  0  0
 26 27  4  0  0  0  0
 27 28  1  0  0  0  0
 28 29  1  0  0  0  0
 21 30  4  0  0  0  0
  9 31  1  0  0  0  0
 31  3  1  0  0  0  0
 14  8  4  0  0  0  0
 30 18  4  0  0  0  0
 27 22  4  0  0  0  0
  1 32  1  0  0  0  0
  1 33  1  0  0  0  0
  1 34  1  0  0  0  0
  6 35  1  0  0  0  0
  6 36  1  0  0  0  0
  6 37  1  0  0  0  0
  7 38  1  0  0  0  0
  7 39  1  0  0  0  0
 12 40  1  0  0  0  0
 12 41  1  0  0  0  0
 12 42  1  0  0  0  0
 15 43  1  0  0  0  0
 16 44  1  0  0  0  0
 17 45  1  0  0  0  0
 17 46  1  0  0  0  0
 17 47  1  0  0  0  0
 19 48  1  0  0  0  0
 20 49  1  0  0  0  0
 23 50  1  0  0  0  0
 24 51  1  0  0  0  0
 25 52  1  0  0  0  0
 26 53  1  0  0  0  0
 28 54  1  0  0  0  0
 28 55  1  0  0  0  0
 29 56  1  0  0  0  0
 31 57  1  0  0  0  0
 31 58  1  0  0  0  0
M  END