Molarium molecule
  Molarium 3D

 58 61  0  0  0  0            999 V2000
    3.7939  -15.2607   27.2694 C   0  0  0  0  0  0  0  0  0  0  0  0
    3.9119  -14.3845   26.1513 O   0  0  0  0  0  0  0  0  0  0  0  0
    4.3089  -15.0823   25.0212 C   0  0  0  0  0  0  0  0  0  0  0  0
    3.4125  -15.5029   24.1117 C   0  0  0  0  0  0  0  0  0  0  0  0
    2.0596  -15.3427   24.3788 O   0  0  0  0  0  0  0  0  0  0  0  0
    1.2473  -15.0377   23.2487 C   0  0  0  0  0  0  0  0  0  0  0  0
    3.8304  -16.2323   22.8556 C   0  0  0  0  0  0  0  0  0  0  0  0
    5.2978  -16.5896   22.7677 C   0  0  0  0  0  0  0  0  0  0  0  0
    6.2032  -16.1573   23.7571 C   0  0  0  0  0  0  0  0  0  0  0  0
    7.4987  -16.5126   23.6982 N   0  0  0  0  0  0  0  0  0  0  0  0
    7.9340  -17.2957   22.6926 C   0  0  0  0  0  0  0  0  0  0  0  0
    9.4004  -17.5964   22.6571 C   0  0  0  0  0  0  0  0  0  0  0  0
    7.1080  -17.7330   21.7227 N   0  0  0  0  0  0  0  0  0  0  0  0
    5.7985  -17.4072   21.7319 C   0  0  0  0  0  0  0  0  0  0  0  0
    5.0165  -17.8722   20.7469 N   0  0  0  0  0  0  0  0  0  0  0  0
    5.3483  -19.0438   19.8958 C   0  0  0  0  0  0  0  0  0  0  0  0
    4.5024  -18.9820   18.6090 C   0  0  0  0  0  0  0  0  0  0  0  0
    5.3565  -20.3684   20.5948 C   0  0  0  0  0  0  0  0  0  0  0  0
    4.3963  -21.3642   20.6469 C   0  0  0  0  0  0  0  0  0  0  0  0
    4.6950  -22.3456   21.6365 C   0  0  0  0  0  0  0  0  0  0  0  0
    5.8960  -22.1044   22.2830 C   0  0  0  0  0  0  0  0  0  0  0  0
    6.5072  -22.8674   23.3865 C   0  0  0  0  0  0  0  0  0  0  0  0
    6.6029  -24.2703   23.2314 C   0  0  0  0  0  0  0  0  0  0  0  0
    7.1710  -25.0765   24.2247 C   0  0  0  0  0  0  0  0  0  0  0  0
    7.6634  -24.4989   25.3864 C   0  0  0  0  0  0  0  0  0  0  0  0
    7.5792  -23.1106   25.5553 C   0  0  0  0  0  0  0  0  0  0  0  0
    6.9789  -22.2810   24.5842 C   0  0  0  0  0  0  0  0  0  0  0  0
    6.9043  -20.8035   24.8880 C   0  0  0  0  0  0  0  0  0  0  0  0
    8.1034  -20.1580   24.4703 O   0  0  0  0  0  0  0  0  0  0  0  0
    6.7185  -20.7926   21.5561 S   0  0  0  0  0  0  0  0  0  0  0  0
    5.7907  -15.2290   24.8356 C   0  0  0  0  0  0  0  0  0  0  0  0
    3.3594  -14.6979   28.0991 H   0  0  0  0  0  0  0  0  0  0  0  0
    4.7800  -15.6235   27.5917 H   0  0  0  0  0  0  0  0  0  0  0  0
    3.1324  -16.1058   27.0550 H   0  0  0  0  0  0  0  0  0  0  0  0
    0.2692  -14.7088   23.6131 H   0  0  0  0  0  0  0  0  0  0  0  0
    1.6825  -14.2288   22.6523 H   0  0  0  0  0  0  0  0  0  0  0  0
    1.0974  -15.9364   22.6384 H   0  0  0  0  0  0  0  0  0  0  0  0
    3.2479  -17.1601   22.7906 H   0  0  0  0  0  0  0  0  0  0  0  0
    3.5953  -15.6070   21.9876 H   0  0  0  0  0  0  0  0  0  0  0  0
    9.7731  -17.8016   23.6661 H   0  0  0  0  0  0  0  0  0  0  0  0
    9.9283  -16.7305   22.2507 H   0  0  0  0  0  0  0  0  0  0  0  0
    9.6071  -18.4692   22.0265 H   0  0  0  0  0  0  0  0  0  0  0  0
    4.8916  -17.0842   20.0654 H   0  0  0  0  0  0  0  0  0  0  0  0
    6.3604  -18.8462   19.5415 H   0  0  0  0  0  0  0  0  0  0  0  0
    4.5173  -19.9026   18.0313 H   0  0  0  0  0  0  0  0  0  0  0  0
    3.4565  -18.7825   18.8551 H   0  0  0  0  0  0  0  0  0  0  0  0
    4.8492  -18.1692   17.9633 H   0  0  0  0  0  0  0  0  0  0  0  0
    3.4723  -21.3305   20.0872 H   0  0  0  0  0  0  0  0  0  0  0  0
    4.0301  -23.1559   21.8975 H   0  0  0  0  0  0  0  0  0  0  0  0
    6.2269  -24.7502   22.3262 H   0  0  0  0  0  0  0  0  0  0  0  0
    7.2208  -26.1584   24.0845 H   0  0  0  0  0  0  0  0  0  0  0  0
    8.1173  -25.1199   26.1588 H   0  0  0  0  0  0  0  0  0  0  0  0
    7.9742  -22.6675   26.4697 H   0  0  0  0  0  0  0  0  0  0  0  0
    6.0439  -20.3309   24.4119 H   0  0  0  0  0  0  0  0  0  0  0  0
    6.7813  -20.6304   25.9611 H   0  0  0  0  0  0  0  0  0  0  0  0
    8.4504  -20.6894   23.7237 H   0  0  0  0  0  0  0  0  0  0  0  0
    6.2459  -15.6020   25.7595 H   0  0  0  0  0  0  0  0  0  0  0  0
    6.2193  -14.2414   24.6325 H   0  0  0  0  0  0  0  0  0  0  0  0
  1  2  1  0  0  0  0
  2  3  1  0  0  0  0
  3  4  2  0  0  0  0
  4  5  1  0  0  0  0
  5  6  1  0  0  0  0
  4  7  1  0  0  0  0
  7  8  1  0  0  0  0
  8  9  4  0  0  0  0
  9 10  4  0  0  0  0
 10 11  4  0  0  0  0
 11 12  1  0  0  0  0
 11 13  4  0  0  0  0
 13 14  4  0  0  0  0
 14 15  1  0  0  0  0
 15 16  1  0  0  0  0
 16 17  1  0  0  0  0
 16 18  1  0  0  0  0
 18 19  4  0  0  0  0
 19 20  4  0  0  0  0
 20 21  4  0  0  0  0
 21 22  1  0  0  0  0
 22 23  4  0  0  0  0
 23 24  4  0  0  0  0
 24 25  4  0  0  0  0
 25 26  4  0  0  0  0
 26 27  4  0  0  0  0
 27 28  1  0  0  0  0
 28 29  1  0  0  0  0
 21 30  4  0  0  0  0
  9 31  1  0  0  0  0
 31  3  1  0  0  0  0
 14  8  4  0  0  0  0
 30 18  4  0  0  0  0
 27 22  4  0  0  0  0
  1 32  1  0  0  0  0
  1 33  1  0  0  0  0
  1 34  1  0  0  0  0
  6 35  1  0  0  0  0
  6 36  1  0  0  0  0
  6 37  1  0  0  0  0
  7 38  1  0  0  0  0
  7 39  1  0  0  0  0
 12 40  1  0  0  0  0
 12 41  1  0  0  0  0
 12 42  1  0  0  0  0
 15 43  1  0  0  0  0
 16 44  1  0  0  0  0
 17 45  1  0  0  0  0
 17 46  1  0  0  0  0
 17 47  1  0  0  0  0
 19 48  1  0  0  0  0
 20 49  1  0  0  0  0
 23 50  1  0  0  0  0
 24 51  1  0  0  0  0
 25 52  1  0  0  0  0
 26 53  1  0  0  0  0
 28 54  1  0  0  0  0
 28 55  1  0  0  0  0
 29 56  1  0  0  0  0
 31 57  1  0  0  0  0
 31 58  1  0  0  0  0
M  END