Molarium molecule
  Molarium 3D

 60 63  0  0  0  0            999 V2000
    0.2311  -25.0427   23.4152 C   0  0  0  0  0  0  0  0  0  0  0  0
    0.1201  -24.6957   22.0891 N   0  0  0  0  0  0  0  0  0  0  0  0
    1.1883  -23.8184   21.7079 C   0  0  0  0  0  0  0  0  0  0  0  0
    1.4519  -24.0274   20.2215 C   0  0  0  0  0  0  0  0  0  0  0  0
    0.8241  -25.0961   19.5628 C   0  0  0  0  0  0  0  0  0  0  0  0
    1.0785  -25.3587   18.2130 C   0  0  0  0  0  0  0  0  0  0  0  0
    1.9755  -24.5594   17.4964 C   0  0  0  0  0  0  0  0  0  0  0  0
    2.6231  -23.4949   18.1350 C   0  0  0  0  0  0  0  0  0  0  0  0
    2.3797  -23.2242   19.5001 C   0  0  0  0  0  0  0  0  0  0  0  0
    3.1848  -22.1544   20.1851 C   0  0  0  0  0  0  0  0  0  0  0  0
    3.5937  -22.1218   21.5184 C   0  0  0  0  0  0  0  0  0  0  0  0
    4.6202  -20.7934   21.9280 S   0  0  0  0  0  0  0  0  0  0  0  0
    4.5453  -20.2273   20.3013 C   0  0  0  0  0  0  0  0  0  0  0  0
    5.3483  -19.0438   19.8958 C   0  0  0  0  0  0  0  0  0  0  0  0
    5.1316  -18.6649   18.4177 C   0  0  0  0  0  0  0  0  0  0  0  0
    5.0165  -17.8722   20.7469 N   0  0  0  0  0  0  0  0  0  0  0  0
    5.8228  -17.3992   21.7578 C   0  0  0  0  0  0  0  0  0  0  0  0
    7.1285  -17.7366   21.7452 N   0  0  0  0  0  0  0  0  0  0  0  0
    7.9569  -17.2731   22.6968 C   0  0  0  0  0  0  0  0  0  0  0  0
    9.4132  -17.6034   22.6514 C   0  0  0  0  0  0  0  0  0  0  0  0
    7.5092  -16.5192   23.7128 N   0  0  0  0  0  0  0  0  0  0  0  0
    6.2169  -16.1695   23.7743 C   0  0  0  0  0  0  0  0  0  0  0  0
    5.7789  -15.4447   24.8882 C   0  0  0  0  0  0  0  0  0  0  0  0
    4.4166  -15.1139   25.0294 C   0  0  0  0  0  0  0  0  0  0  0  0
    3.9373  -14.4653   26.1742 O   0  0  0  0  0  0  0  0  0  0  0  0
    4.7874  -13.4228   26.6985 C   0  0  0  0  0  0  0  0  0  0  0  0
    3.5132  -15.4990   24.0009 C   0  0  0  0  0  0  0  0  0  0  0  0
    2.1608  -15.2329   24.0584 O   0  0  0  0  0  0  0  0  0  0  0  0
    1.8337  -13.8866   23.6936 C   0  0  0  0  0  0  0  0  0  0  0  0
    3.9602  -16.2075   22.8826 C   0  0  0  0  0  0  0  0  0  0  0  0
    5.3100  -16.5680   22.7779 C   0  0  0  0  0  0  0  0  0  0  0  0
    3.7928  -21.0268   19.4758 C   0  0  0  0  0  0  0  0  0  0  0  0
   -0.6494  -24.5864   23.8679 H   0  0  0  0  0  0  0  0  0  0  0  0
    1.1684  -24.6408   23.8005 H   0  0  0  0  0  0  0  0  0  0  0  0
    0.3491  -26.1075   23.6168 H   0  0  0  0  0  0  0  0  0  0  0  0
   -0.7860  -24.2505   21.9268 H   0  0  0  0  0  0  0  0  0  0  0  0
    0.9724  -22.7799   21.9595 H   0  0  0  0  0  0  0  0  0  0  0  0
    2.1110  -24.1686   22.1710 H   0  0  0  0  0  0  0  0  0  0  0  0
    0.1104  -25.7700   20.0174 H   0  0  0  0  0  0  0  0  0  0  0  0
    0.4153  -26.0861   17.7642 H   0  0  0  0  0  0  0  0  0  0  0  0
    2.3128  -24.7487   16.4860 H   0  0  0  0  0  0  0  0  0  0  0  0
    3.1799  -22.7750   17.5502 H   0  0  0  0  0  0  0  0  0  0  0  0
    3.4003  -22.8510   22.2938 H   0  0  0  0  0  0  0  0  0  0  0  0
    6.4001  -19.3044   20.0147 H   0  0  0  0  0  0  0  0  0  0  0  0
    4.0812  -18.7474   18.1381 H   0  0  0  0  0  0  0  0  0  0  0  0
    5.7215  -19.2871   17.7445 H   0  0  0  0  0  0  0  0  0  0  0  0
    5.3640  -17.6218   18.2028 H   0  0  0  0  0  0  0  0  0  0  0  0
    4.1510  -17.3636   20.5524 H   0  0  0  0  0  0  0  0  0  0  0  0
    9.6055  -18.5813   23.0931 H   0  0  0  0  0  0  0  0  0  0  0  0
    9.9793  -16.9270   23.2921 H   0  0  0  0  0  0  0  0  0  0  0  0
    9.8329  -17.4461   21.6576 H   0  0  0  0  0  0  0  0  0  0  0  0
    6.5022  -15.1950   25.6529 H   0  0  0  0  0  0  0  0  0  0  0  0
    5.1558  -12.7808   25.8982 H   0  0  0  0  0  0  0  0  0  0  0  0
    4.2189  -12.7987   27.3882 H   0  0  0  0  0  0  0  0  0  0  0  0
    5.6382  -13.8294   27.2454 H   0  0  0  0  0  0  0  0  0  0  0  0
    2.0746  -13.7173   22.6440 H   0  0  0  0  0  0  0  0  0  0  0  0
    0.7682  -13.7113   23.8430 H   0  0  0  0  0  0  0  0  0  0  0  0
    2.3682  -13.1661   24.3130 H   0  0  0  0  0  0  0  0  0  0  0  0
    3.2198  -16.4859   22.1446 H   0  0  0  0  0  0  0  0  0  0  0  0
    3.7487  -20.8610   18.4076 H   0  0  0  0  0  0  0  0  0  0  0  0
  1  2  1  0  0  0  0
  2  3  1  0  0  0  0
  3  4  1  0  0  0  0
  4  5  4  0  0  0  0
  5  6  4  0  0  0  0
  6  7  4  0  0  0  0
  7  8  4  0  0  0  0
  8  9  4  0  0  0  0
  9 10  1  0  0  0  0
 10 11  4  0  0  0  0
 11 12  4  0  0  0  0
 12 13  4  0  0  0  0
 13 14  1  0  0  0  0
 14 15  1  0  0  0  0
 14 16  1  0  0  0  0
 16 17  1  0  0  0  0
 17 18  4  0  0  0  0
 18 19  4  0  0  0  0
 19 20  1  0  0  0  0
 19 21  4  0  0  0  0
 21 22  4  0  0  0  0
 22 23  4  0  0  0  0
 23 24  4  0  0  0  0
 24 25  1  0  0  0  0
 25 26  1  0  0  0  0
 24 27  4  0  0  0  0
 27 28  1  0  0  0  0
 28 29  1  0  0  0  0
 27 30  4  0  0  0  0
 30 31  4  0  0  0  0
 13 32  4  0  0  0  0
  9  4  4  0  0  0  0
 32 10  4  0  0  0  0
 31 17  4  0  0  0  0
 31 22  4  0  0  0  0
  1 33  1  0  0  0  0
  1 34  1  0  0  0  0
  1 35  1  0  0  0  0
  2 36  1  0  0  0  0
  3 37  1  0  0  0  0
  3 38  1  0  0  0  0
  5 39  1  0  0  0  0
  6 40  1  0  0  0  0
  7 41  1  0  0  0  0
  8 42  1  0  0  0  0
 11 43  1  0  0  0  0
 14 44  1  0  0  0  0
 15 45  1  0  0  0  0
 15 46  1  0  0  0  0
 15 47  1  0  0  0  0
 16 48  1  0  0  0  0
 20 49  1  0  0  0  0
 20 50  1  0  0  0  0
 20 51  1  0  0  0  0
 23 52  1  0  0  0  0
 26 53  1  0  0  0  0
 26 54  1  0  0  0  0
 26 55  1  0  0  0  0
 29 56  1  0  0  0  0
 29 57  1  0  0  0  0
 29 58  1  0  0  0  0
 30 59  1  0  0  0  0
 32 60  1  0  0  0  0
M  END