Molarium molecule
  Molarium 3D

 56 60  0  0  0  0            999 V2000
    4.3058  -12.7926   25.7802 C   0  0  0  0  0  0  0  0  0  0  0  0
    3.9985  -14.1774   25.9580 O   0  0  0  0  0  0  0  0  0  0  0  0
    4.4211  -14.9735   24.9038 C   0  0  0  0  0  0  0  0  0  0  0  0
    5.7679  -15.3563   24.8141 C   0  0  0  0  0  0  0  0  0  0  0  0
    6.2032  -16.1573   23.7571 C   0  0  0  0  0  0  0  0  0  0  0  0
    7.4987  -16.5126   23.6982 N   0  0  0  0  0  0  0  0  0  0  0  0
    7.9340  -17.2957   22.6926 C   0  0  0  0  0  0  0  0  0  0  0  0
    9.4004  -17.5964   22.6571 C   0  0  0  0  0  0  0  0  0  0  0  0
    7.1080  -17.7330   21.7227 N   0  0  0  0  0  0  0  0  0  0  0  0
    5.7985  -17.4072   21.7319 C   0  0  0  0  0  0  0  0  0  0  0  0
    5.0165  -17.8722   20.7469 N   0  0  0  0  0  0  0  0  0  0  0  0
    5.3483  -19.0438   19.8958 C   0  0  0  0  0  0  0  0  0  0  0  0
    4.5024  -18.9820   18.6090 C   0  0  0  0  0  0  0  0  0  0  0  0
    5.0729  -20.3193   20.6751 C   0  0  0  0  0  0  0  0  0  0  0  0
    4.0581  -21.2369   20.4469 C   0  0  0  0  0  0  0  0  0  0  0  0
    4.1190  -22.3549   21.3720 C   0  0  0  0  0  0  0  0  0  0  0  0
    5.2158  -22.2520   22.2052 C   0  0  0  0  0  0  0  0  0  0  0  0
    5.5452  -23.1726   23.2945 C   0  0  0  0  0  0  0  0  0  0  0  0
    5.0025  -24.4210   23.5215 C   0  0  0  0  0  0  0  0  0  0  0  0
    5.4712  -24.9935   24.7123 N   0  0  0  0  0  0  0  0  0  0  0  0
    6.1879  -24.0298   25.2301 C   0  0  0  0  0  0  0  0  0  0  0  0
    6.3010  -22.9569   24.4115 N   0  0  0  0  0  0  0  0  0  0  0  0
    7.5036  -22.1570   24.6488 C   0  0  0  0  0  0  0  0  0  0  0  0
    7.6976  -22.5329   26.2394 C   0  0  0  0  0  0  0  0  0  0  0  0
    7.1548  -24.0470   26.3646 C   0  0  0  0  0  0  0  0  0  0  0  0
    6.2208  -20.8569   21.8514 S   0  0  0  0  0  0  0  0  0  0  0  0
    5.2978  -16.5896   22.7677 C   0  0  0  0  0  0  0  0  0  0  0  0
    3.9461  -16.2090   22.8551 C   0  0  0  0  0  0  0  0  0  0  0  0
    3.4977  -15.3982   23.9231 C   0  0  0  0  0  0  0  0  0  0  0  0
    2.1746  -14.9750   24.0571 O   0  0  0  0  0  0  0  0  0  0  0  0
    1.3126  -15.1712   22.9375 C   0  0  0  0  0  0  0  0  0  0  0  0
    4.5028  -12.5469   24.7366 H   0  0  0  0  0  0  0  0  0  0  0  0
    3.4597  -12.1840   26.0999 H   0  0  0  0  0  0  0  0  0  0  0  0
    5.1693  -12.5089   26.3821 H   0  0  0  0  0  0  0  0  0  0  0  0
    6.4710  -15.0302   25.5689 H   0  0  0  0  0  0  0  0  0  0  0  0
    9.9122  -16.8427   22.0584 H   0  0  0  0  0  0  0  0  0  0  0  0
    9.8364  -17.6126   23.6561 H   0  0  0  0  0  0  0  0  0  0  0  0
    9.5380  -18.5580   22.1622 H   0  0  0  0  0  0  0  0  0  0  0  0
    4.0186  -17.7967   20.9567 H   0  0  0  0  0  0  0  0  0  0  0  0
    6.4008  -19.0120   19.6134 H   0  0  0  0  0  0  0  0  0  0  0  0
    4.6809  -18.0434   18.0842 H   0  0  0  0  0  0  0  0  0  0  0  0
    4.7664  -19.7987   17.9369 H   0  0  0  0  0  0  0  0  0  0  0  0
    3.4372  -19.0565   18.8281 H   0  0  0  0  0  0  0  0  0  0  0  0
    3.3309  -21.1738   19.6484 H   0  0  0  0  0  0  0  0  0  0  0  0
    3.3940  -23.1577   21.3921 H   0  0  0  0  0  0  0  0  0  0  0  0
    4.0976  -24.7210   23.0102 H   0  0  0  0  0  0  0  0  0  0  0  0
    7.7291  -21.1161   24.4165 H   0  0  0  0  0  0  0  0  0  0  0  0
    8.1265  -22.4651   23.8089 H   0  0  0  0  0  0  0  0  0  0  0  0
    7.1705  -21.8471   26.9030 H   0  0  0  0  0  0  0  0  0  0  0  0
    8.7291  -22.4301   26.5768 H   0  0  0  0  0  0  0  0  0  0  0  0
    6.7661  -24.3306   27.3428 H   0  0  0  0  0  0  0  0  0  0  0  0
    7.8798  -24.8233   26.1194 H   0  0  0  0  0  0  0  0  0  0  0  0
    3.2428  -16.5651   22.1143 H   0  0  0  0  0  0  0  0  0  0  0  0
    1.7353  -14.7347   22.0324 H   0  0  0  0  0  0  0  0  0  0  0  0
    1.1067  -16.2293   22.7752 H   0  0  0  0  0  0  0  0  0  0  0  0
    0.3568  -14.6800   23.1209 H   0  0  0  0  0  0  0  0  0  0  0  0
  1  2  1  0  0  0  0
  2  3  1  0  0  0  0
  3  4  4  0  0  0  0
  4  5  4  0  0  0  0
  5  6  4  0  0  0  0
  6  7  4  0  0  0  0
  7  8  1  0  0  0  0
  7  9  4  0  0  0  0
  9 10  4  0  0  0  0
 10 11  1  0  0  0  0
 11 12  1  0  0  0  0
 12 13  1  0  0  0  0
 12 14  1  0  0  0  0
 14 15  4  0  0  0  0
 15 16  4  0  0  0  0
 16 17  4  0  0  0  0
 17 18  1  0  0  0  0
 18 19  4  0  0  0  0
 19 20  4  0  0  0  0
 20 21  4  0  0  0  0
 21 22  4  0  0  0  0
 22 23  1  0  0  0  0
 23 24  1  0  0  0  0
 24 25  1  0  0  0  0
 17 26  4  0  0  0  0
 10 27  4  0  0  0  0
 27 28  4  0  0  0  0
 28 29  4  0  0  0  0
 29 30  1  0  0  0  0
 30 31  1  0  0  0  0
 29  3  4  0  0  0  0
 27  5  4  0  0  0  0
 26 14  4  0  0  0  0
 22 18  4  0  0  0  0
 25 21  1  0  0  0  0
  1 32  1  0  0  0  0
  1 33  1  0  0  0  0
  1 34  1  0  0  0  0
  4 35  1  0  0  0  0
  8 36  1  0  0  0  0
  8 37  1  0  0  0  0
  8 38  1  0  0  0  0
 11 39  1  0  0  0  0
 12 40  1  0  0  0  0
 13 41  1  0  0  0  0
 13 42  1  0  0  0  0
 13 43  1  0  0  0  0
 15 44  1  0  0  0  0
 16 45  1  0  0  0  0
 19 46  1  0  0  0  0
 23 47  1  0  0  0  0
 23 48  1  0  0  0  0
 24 49  1  0  0  0  0
 24 50  1  0  0  0  0
 25 51  1  0  0  0  0
 25 52  1  0  0  0  0
 28 53  1  0  0  0  0
 31 54  1  0  0  0  0
 31 55  1  0  0  0  0
 31 56  1  0  0  0  0
M  END