Molarium molecule
  Molarium 3D

 52 55  0  0  0  0            999 V2000
    4.3058  -12.7926   25.7802 C   0  0  0  0  0  0  0  0  0  0  0  0
    3.9985  -14.1774   25.9580 O   0  0  0  0  0  0  0  0  0  0  0  0
    4.4211  -14.9735   24.9038 C   0  0  0  0  0  0  0  0  0  0  0  0
    5.7679  -15.3563   24.8141 C   0  0  0  0  0  0  0  0  0  0  0  0
    6.2032  -16.1573   23.7571 C   0  0  0  0  0  0  0  0  0  0  0  0
    7.4987  -16.5126   23.6982 N   0  0  0  0  0  0  0  0  0  0  0  0
    7.9340  -17.2957   22.6926 C   0  0  0  0  0  0  0  0  0  0  0  0
    9.4004  -17.5964   22.6571 C   0  0  0  0  0  0  0  0  0  0  0  0
    7.1080  -17.7330   21.7227 N   0  0  0  0  0  0  0  0  0  0  0  0
    5.7985  -17.4072   21.7319 C   0  0  0  0  0  0  0  0  0  0  0  0
    5.0165  -17.8722   20.7469 N   0  0  0  0  0  0  0  0  0  0  0  0
    5.3405  -19.0482   19.9079 C   0  0  0  0  0  0  0  0  0  0  0  0
    4.9739  -18.7310   18.4423 C   0  0  0  0  0  0  0  0  0  0  0  0
    4.5769  -20.2749   20.4152 C   0  0  0  0  0  0  0  0  0  0  0  0
    3.2259  -20.4695   20.0607 C   0  0  0  0  0  0  0  0  0  0  0  0
    2.5121  -21.5791   20.5309 C   0  0  0  0  0  0  0  0  0  0  0  0
    3.1313  -22.5005   21.3813 C   0  0  0  0  0  0  0  0  0  0  0  0
    4.4726  -22.3206   21.7626 C   0  0  0  0  0  0  0  0  0  0  0  0
    5.2499  -23.3515   22.4625 C   0  0  0  0  0  0  0  0  0  0  0  0
    6.6768  -23.5761   22.7085 C   0  0  0  0  0  0  0  0  0  0  0  0
    6.8442  -24.4461   23.6829 N   0  0  0  0  0  0  0  0  0  0  0  0
    5.5681  -24.8454   24.0155 N   0  0  0  0  0  0  0  0  0  0  0  0
    4.6490  -24.3437   23.1223 C   0  0  0  0  0  0  0  0  0  0  0  0
    5.1955  -21.2062   21.2792 C   0  0  0  0  0  0  0  0  0  0  0  0
    5.2978  -16.5896   22.7677 C   0  0  0  0  0  0  0  0  0  0  0  0
    3.9461  -16.2090   22.8551 C   0  0  0  0  0  0  0  0  0  0  0  0
    3.4977  -15.3982   23.9231 C   0  0  0  0  0  0  0  0  0  0  0  0
    2.1746  -14.9750   24.0571 O   0  0  0  0  0  0  0  0  0  0  0  0
    1.3126  -15.1712   22.9375 C   0  0  0  0  0  0  0  0  0  0  0  0
    5.3637  -12.6077   25.9673 H   0  0  0  0  0  0  0  0  0  0  0  0
    3.7330  -12.1872   26.4829 H   0  0  0  0  0  0  0  0  0  0  0  0
    4.0586  -12.4581   24.7725 H   0  0  0  0  0  0  0  0  0  0  0  0
    6.4717  -15.0312   25.5687 H   0  0  0  0  0  0  0  0  0  0  0  0
    9.9933  -16.6917   22.5211 H   0  0  0  0  0  0  0  0  0  0  0  0
    9.6908  -18.0794   23.5902 H   0  0  0  0  0  0  0  0  0  0  0  0
    9.6338  -18.2664   21.8295 H   0  0  0  0  0  0  0  0  0  0  0  0
    4.5899  -17.1114   20.2133 H   0  0  0  0  0  0  0  0  0  0  0  0
    6.4084  -19.2670   19.9258 H   0  0  0  0  0  0  0  0  0  0  0  0
    5.6481  -17.9875   18.0166 H   0  0  0  0  0  0  0  0  0  0  0  0
    3.9600  -18.3407   18.3522 H   0  0  0  0  0  0  0  0  0  0  0  0
    5.0455  -19.6270   17.8256 H   0  0  0  0  0  0  0  0  0  0  0  0
    2.7047  -19.7473   19.4466 H   0  0  0  0  0  0  0  0  0  0  0  0
    1.4777  -21.7269   20.2506 H   0  0  0  0  0  0  0  0  0  0  0  0
    2.5472  -23.3417   21.7301 H   0  0  0  0  0  0  0  0  0  0  0  0
    7.4849  -23.1744   22.1118 H   0  0  0  0  0  0  0  0  0  0  0  0
    5.3229  -25.3513   24.8696 H   0  0  0  0  0  0  0  0  0  0  0  0
    3.5785  -24.4924   23.0756 H   0  0  0  0  0  0  0  0  0  0  0  0
    6.2293  -21.0577   21.5613 H   0  0  0  0  0  0  0  0  0  0  0  0
    3.2397  -16.5812   22.1252 H   0  0  0  0  0  0  0  0  0  0  0  0
    1.7628  -14.7926   22.0197 H   0  0  0  0  0  0  0  0  0  0  0  0
    0.3830  -14.6225   23.0901 H   0  0  0  0  0  0  0  0  0  0  0  0
    1.0558  -16.2237   22.8165 H   0  0  0  0  0  0  0  0  0  0  0  0
  1  2  1  0  0  0  0
  2  3  1  0  0  0  0
  3  4  4  0  0  0  0
  4  5  4  0  0  0  0
  5  6  4  0  0  0  0
  6  7  4  0  0  0  0
  7  8  1  0  0  0  0
  7  9  4  0  0  0  0
  9 10  4  0  0  0  0
 10 11  1  0  0  0  0
 11 12  1  0  0  0  0
 12 13  1  0  0  0  0
 12 14  1  0  0  0  0
 14 15  4  0  0  0  0
 15 16  4  0  0  0  0
 16 17  4  0  0  0  0
 17 18  4  0  0  0  0
 18 19  1  0  0  0  0
 19 20  4  0  0  0  0
 20 21  4  0  0  0  0
 21 22  4  0  0  0  0
 22 23  4  0  0  0  0
 18 24  4  0  0  0  0
 10 25  4  0  0  0  0
 25 26  4  0  0  0  0
 26 27  4  0  0  0  0
 27 28  1  0  0  0  0
 28 29  1  0  0  0  0
 27  3  4  0  0  0  0
 25  5  4  0  0  0  0
 24 14  4  0  0  0  0
 23 19  4  0  0  0  0
  1 30  1  0  0  0  0
  1 31  1  0  0  0  0
  1 32  1  0  0  0  0
  4 33  1  0  0  0  0
  8 34  1  0  0  0  0
  8 35  1  0  0  0  0
  8 36  1  0  0  0  0
 11 37  1  0  0  0  0
 12 38  1  0  0  0  0
 13 39  1  0  0  0  0
 13 40  1  0  0  0  0
 13 41  1  0  0  0  0
 15 42  1  0  0  0  0
 16 43  1  0  0  0  0
 17 44  1  0  0  0  0
 20 45  1  0  0  0  0
 22 46  1  0  0  0  0
 23 47  1  0  0  0  0
 24 48  1  0  0  0  0
 26 49  1  0  0  0  0
 29 50  1  0  0  0  0
 29 51  1  0  0  0  0
 29 52  1  0  0  0  0
M  END