Molarium molecule
  Molarium 3D

 48 51  0  0  0  0            999 V2000
    3.9515  -16.2262   22.9009 C   0  0  0  0  0  0  0  0  0  0  0  0
    5.7725  -15.3662   24.8059 C   0  0  0  0  0  0  0  0  0  0  0  0
    4.4285  -14.9942   24.9229 C   0  0  0  0  0  0  0  0  0  0  0  0
    4.6005  -20.2922   20.4329 C   0  0  0  0  0  0  0  0  0  0  0  0
    1.2715  -15.3972   23.0559 C   0  0  0  0  0  0  0  0  0  0  0  0
    3.2095  -20.3902   20.2869 C   0  0  0  0  0  0  0  0  0  0  0  0
    4.5965  -22.4512   21.5569 C   0  0  0  0  0  0  0  0  0  0  0  0
    6.6845  -21.2762   21.2479 C   0  0  0  0  0  0  0  0  0  0  0  0
    3.2115  -22.5352   21.4009 C   0  0  0  0  0  0  0  0  0  0  0  0
    7.3575  -22.3212   21.8859 C   0  0  0  0  0  0  0  0  0  0  0  0
    4.7425  -13.0012   26.1299 C   0  0  0  0  0  0  0  0  0  0  0  0
    4.0045  -14.2212   25.9729 O   0  0  0  0  0  0  0  0  0  0  0  0
    3.5055  -15.4282   23.9659 C   0  0  0  0  0  0  0  0  0  0  0  0
    2.1925  -15.0502   24.1119 O   0  0  0  0  0  0  0  0  0  0  0  0
    5.3005  -16.6042   22.7789 C   0  0  0  0  0  0  0  0  0  0  0  0
    6.2085  -16.1612   23.7489 C   0  0  0  0  0  0  0  0  0  0  0  0
    7.5095  -16.5022   23.6569 N   0  0  0  0  0  0  0  0  0  0  0  0
    7.9465  -17.2552   22.6559 C   0  0  0  0  0  0  0  0  0  0  0  0
    7.1205  -17.6962   21.7129 N   0  0  0  0  0  0  0  0  0  0  0  0
    5.7985  -17.4072   21.7319 C   0  0  0  0  0  0  0  0  0  0  0  0
    5.0165  -17.8722   20.7469 N   0  0  0  0  0  0  0  0  0  0  0  0
    5.3405  -19.0482   19.9079 C   0  0  0  0  0  0  0  0  0  0  0  0
    4.9465  -18.7342   18.4539 C   0  0  0  0  0  0  0  0  0  0  0  0
    5.2945  -21.3322   21.0749 C   0  0  0  0  0  0  0  0  0  0  0  0
    6.6575  -23.4332   22.3599 C   0  0  0  0  0  0  0  0  0  0  0  0
    5.2735  -23.4942   22.1929 C   0  0  0  0  0  0  0  0  0  0  0  0
    2.5225  -21.5062   20.7639 C   0  0  0  0  0  0  0  0  0  0  0  0
    5.4326  -13.0993   26.9680 H   0  0  0  0  0  0  0  0  0  0  0  0
    4.0514  -12.1807   26.3225 H   0  0  0  0  0  0  0  0  0  0  0  0
    5.3045  -12.7967   25.2186 H   0  0  0  0  0  0  0  0  0  0  0  0
    6.4896  -15.0283   25.5541 H   0  0  0  0  0  0  0  0  0  0  0  0
    9.0034  -17.5172   22.6060 H   0  0  0  0  0  0  0  0  0  0  0  0
    4.1489  -17.3881   20.5653 H   0  0  0  0  0  0  0  0  0  0  0  0
    6.4087  -19.2611   19.9495 H   0  0  0  0  0  0  0  0  0  0  0  0
    3.9487  -18.2960   18.4344 H   0  0  0  0  0  0  0  0  0  0  0  0
    4.9508  -19.6543   17.8696 H   0  0  0  0  0  0  0  0  0  0  0  0
    5.6611  -18.0299   18.0279 H   0  0  0  0  0  0  0  0  0  0  0  0
    2.6601  -19.5869   19.7962 H   0  0  0  0  0  0  0  0  0  0  0  0
    1.4420  -21.5733   20.6377 H   0  0  0  0  0  0  0  0  0  0  0  0
    2.6710  -23.4040   21.7768 H   0  0  0  0  0  0  0  0  0  0  0  0
    4.7193  -24.3581   22.5598 H   0  0  0  0  0  0  0  0  0  0  0  0
    7.1878  -24.2462   22.8559 H   0  0  0  0  0  0  0  0  0  0  0  0
    8.4386  -22.2683   22.0150 H   0  0  0  0  0  0  0  0  0  0  0  0
    7.2426  -20.4139   20.8832 H   0  0  0  0  0  0  0  0  0  0  0  0
    3.2353  -16.5609   22.1506 H   0  0  0  0  0  0  0  0  0  0  0  0
    1.2990  -16.4740   22.8892 H   0  0  0  0  0  0  0  0  0  0  0  0
    1.5576  -14.8803   22.1399 H   0  0  0  0  0  0  0  0  0  0  0  0
    0.2626  -15.0993   23.3413 H   0  0  0  0  0  0  0  0  0  0  0  0
 11 12  1  0  0  0  0
 12  3  1  0  0  0  0
  3  2  4  0  0  0  0
  2 16  4  0  0  0  0
 16 17  4  0  0  0  0
 17 18  4  0  0  0  0
 18 19  4  0  0  0  0
 19 20  4  0  0  0  0
 20 21  1  0  0  0  0
 21 22  1  0  0  0  0
 22 23  1  0  0  0  0
 22  4  1  0  0  0  0
  4  6  4  0  0  0  0
  6 27  4  0  0  0  0
 27  9  4  0  0  0  0
  9  7  4  0  0  0  0
  7 26  4  0  0  0  0
 26 25  4  0  0  0  0
 25 10  4  0  0  0  0
 10  8  4  0  0  0  0
  8 24  4  0  0  0  0
 20 15  4  0  0  0  0
 15  1  4  0  0  0  0
  1 13  4  0  0  0  0
 13 14  1  0  0  0  0
 14  5  1  0  0  0  0
 13  3  4  0  0  0  0
 15 16  4  0  0  0  0
 24  4  4  0  0  0  0
 24  7  4  0  0  0  0
 11 28  1  0  0  0  0
 11 29  1  0  0  0  0
 11 30  1  0  0  0  0
  2 31  1  0  0  0  0
 18 32  1  0  0  0  0
 21 33  1  0  0  0  0
 22 34  1  0  0  0  0
 23 35  1  0  0  0  0
 23 36  1  0  0  0  0
 23 37  1  0  0  0  0
  6 38  1  0  0  0  0
 27 39  1  0  0  0  0
  9 40  1  0  0  0  0
 26 41  1  0  0  0  0
 25 42  1  0  0  0  0
 10 43  1  0  0  0  0
  8 44  1  0  0  0  0
  1 45  1  0  0  0  0
  5 46  1  0  0  0  0
  5 47  1  0  0  0  0
  5 48  1  0  0  0  0
M  END