(S)-x1 published binding interactions
  Molarium

  4  2  0  0  0  0            999 V2000
  -16.9070    3.4700   26.2010 N   0  0  0  0  0  0  0  0  0  0  0  0
  -15.9990    1.0840   25.9850 N   0  0  0  0  0  0  0  0  0  0  0  0
  -19.4530    4.6360   29.7980 O   0  0  0  0  0  0  0  0  0  0  0  0
  -16.6460    3.4870   30.0480 N   0  0  0  0  0  0  0  0  0  0  0  0
  1  2  1  0  0  0  0
  3  4  1  0  0  0  0
M  END
$$$$
