(S)-x38 published binding interactions
  Molarium

  4  2  0  0  0  0            999 V2000
  -16.5500    3.7210   25.9900 N   0  0  0  0  0  0  0  0  0  0  0  0
  -15.7230    1.0740   25.9630 N   0  0  0  0  0  0  0  0  0  0  0  0
  -19.2180    4.8710   29.5330 O   0  0  0  0  0  0  0  0  0  0  0  0
  -16.5310    3.6350   30.0260 N   0  0  0  0  0  0  0  0  0  0  0  0
  1  2  1  0  0  0  0
  3  4  1  0  0  0  0
M  END
$$$$
