BCL-xL compound 16 reconstructed pose
     RDKit          3D

 72 79  0  0  0  0  0  0  0  0999 V2000
   31.4580    8.8079  -28.2235 Cl  0  0  0  0  0  0  0  0  0  0  0  0
   30.9723    9.2858  -26.6437 C   0  0  0  0  0  0  0  0  0  0  0  0
   29.8936   10.1521  -26.4837 C   0  0  0  0  0  0  0  0  0  0  0  0
   29.5009   10.5423  -25.2001 C   0  0  0  0  0  0  0  0  0  0  0  0
   30.1856   10.0710  -24.0717 C   0  0  0  0  0  0  0  0  0  0  0  0
   31.2691    9.1981  -24.2496 C   0  0  0  0  0  0  0  0  0  0  0  0
   31.6618    8.8058  -25.5326 C   0  0  0  0  0  0  0  0  0  0  0  0
   29.7872   10.4946  -22.7359 C   0  0  0  0  0  0  0  0  0  0  0  0
   29.4880   11.7582  -22.2238 C   0  0  0  0  0  0  0  0  0  0  0  0
   29.1507   11.6003  -20.8918 C   0  0  0  0  0  0  0  0  0  0  0  0
   29.2473   10.3018  -20.5961 N   0  0  0  0  0  0  0  0  0  0  0  0
   29.6719    9.6296  -21.6864 C   0  0  0  0  0  0  0  0  0  0  0  0
   29.0289    9.7154  -19.2339 C   0  0  0  0  0  0  0  0  0  0  0  0
   28.7857   12.6211  -19.9302 C   0  0  0  0  0  0  0  0  0  0  0  0
   29.5971   13.3259  -19.3420 O   0  0  0  0  0  0  0  0  0  0  0  0
   27.4332   12.6880  -19.7213 N   0  0  0  0  0  0  0  0  0  0  0  0
   26.8078   13.6762  -18.8780 C   0  0  0  0  0  0  0  0  0  0  0  0
   25.3839   13.2743  -18.4931 C   0  0  0  0  0  0  0  0  0  0  0  0
   24.4316   13.1467  -19.6974 C   0  0  0  0  0  0  0  0  0  0  0  0
   24.8230   12.0663  -20.6308 N   0  0  0  0  0  0  0  0  0  0  0  0
   24.3940   10.7326  -20.1307 C   0  0  0  0  0  0  0  0  0  0  0  0
   23.0431   10.1857  -20.6715 C   0  0  0  0  0  0  0  0  0  0  0  0
   22.0984   11.2585  -21.0022 N   0  0  0  0  0  0  0  0  0  0  0  0
   22.6719   12.1501  -22.0276 C   0  0  0  0  0  0  0  0  0  0  0  0
   24.2165   12.2880  -21.9611 C   0  0  0  0  0  0  0  0  0  0  0  0
   20.8010   10.7361  -21.4146 C   0  0  0  0  0  0  0  0  0  0  0  0
   29.4276   12.9792  -22.8861 C   0  0  0  0  0  0  0  0  0  0  0  0
   30.5557   13.6127  -23.4930 C   0  0  0  0  0  0  0  0  0  0  0  0
   30.4781   14.8797  -24.1269 C   0  0  0  0  0  0  0  0  0  0  0  0
   29.2369   15.5537  -24.1050 C   0  0  0  0  0  0  0  0  0  0  0  0
   28.1134   14.9627  -23.5120 C   0  0  0  0  0  0  0  0  0  0  0  0
   28.2188   13.7112  -22.9037 C   0  0  0  0  0  0  0  0  0  0  0  0
   31.5425   15.4194  -24.7924 N   0  0  0  0  0  0  0  0  0  0  0  0
   32.6545   14.5212  -25.1667 C   0  0  0  0  0  0  0  0  0  0  0  0
   33.9057   15.1818  -25.7536 C   0  0  0  0  0  0  0  0  0  0  0  0
   33.7142   16.4378  -26.4857 N   0  0  0  0  0  0  0  0  0  0  0  0
   32.6446   17.3251  -26.0343 C   0  0  0  0  0  0  0  0  0  0  0  0
   31.3548   16.6716  -25.5370 C   0  0  0  0  0  0  0  0  0  0  0  0
   34.7766   16.9773  -27.1681 C   0  0  0  0  0  0  0  0  0  0  0  0
   34.6695   18.1354  -27.9599 C   0  0  0  0  0  0  0  0  0  0  0  0
   35.7971   18.7323  -28.5749 C   0  0  0  0  0  0  0  0  0  0  0  0
   37.0590   18.1351  -28.4207 C   0  0  0  0  0  0  0  0  0  0  0  0
   37.1671   16.9815  -27.6393 C   0  0  0  0  0  0  0  0  0  0  0  0
   36.0451   16.4269  -26.9934 C   0  0  0  0  0  0  0  0  0  0  0  0
   38.1698   18.6496  -29.0384 N   0  0  0  0  0  0  0  0  0  0  0  0
   39.3149   19.4211  -28.1328 S   0  0  0  0  0  0  0  0  0  0  0  0
   40.3467   19.9449  -29.1476 O   0  0  0  0  0  0  0  0  0  0  0  0
   39.9347   18.4654  -27.1748 O   0  0  0  0  0  0  0  0  0  0  0  0
   38.6433   20.7504  -27.3064 C   0  0  0  0  0  0  0  0  0  0  0  0
   38.8178   20.8835  -25.9251 C   0  0  0  0  0  0  0  0  0  0  0  0
   38.3249   21.9658  -25.2001 C   0  0  0  0  0  0  0  0  0  0  0  0
   37.6412   22.9822  -25.9168 C   0  0  0  0  0  0  0  0  0  0  0  0
   37.4564   22.8529  -27.3089 C   0  0  0  0  0  0  0  0  0  0  0  0
   37.9617   21.7621  -28.0007 C   0  0  0  0  0  0  0  0  0  0  0  0
   37.2408   24.0639  -25.2618 N   0  0  0  0  0  0  0  0  0  0  0  0
   36.6302   25.2331  -25.9091 C   0  0  1  0  0  0  0  0  0  0  0  0
   35.1374   24.9075  -26.1012 C   0  0  0  0  0  0  0  0  0  0  0  0
   34.2728   24.5057  -24.5288 S   0  0  0  0  0  0  0  0  0  0  0  0
   34.4639   22.7585  -24.4235 C   0  0  0  0  0  0  0  0  0  0  0  0
   34.8590   22.1524  -23.2222 C   0  0  0  0  0  0  0  0  0  0  0  0
   35.0627   20.7706  -23.2194 C   0  0  0  0  0  0  0  0  0  0  0  0
   34.8547   19.9982  -24.3518 C   0  0  0  0  0  0  0  0  0  0  0  0
   34.4434   20.6135  -25.5188 C   0  0  0  0  0  0  0  0  0  0  0  0
   34.2277   21.9808  -25.5411 C   0  0  0  0  0  0  0  0  0  0  0  0
   36.9482   26.4509  -25.0061 C   0  0  0  0  0  0  0  0  0  0  0  0
   36.6117   27.7681  -25.7110 C   0  0  0  0  0  0  0  0  0  0  0  0
   36.5525   28.8746  -24.7344 N   0  0  0  0  0  0  0  0  0  0  0  0
   36.0270   30.0871  -25.3816 C   0  0  0  0  0  0  0  0  0  0  0  0
   37.8276   29.1170  -24.0348 C   0  0  0  0  0  0  0  0  0  0  0  0
   38.4931   22.0145  -23.8267 N   0  0  0  0  0  0  0  0  0  0  0  0
   39.0318   20.9729  -23.2264 O   0  0  0  0  0  0  0  0  0  0  0  0
   38.1394   22.9738  -23.1629 O   0  0  0  0  0  0  0  0  0  0  0  0
  1  2  1  0
  2  3  2  0
  3  4  1  0
  4  5  2  0
  5  6  1  0
  6  7  2  0
  5  8  1  0
  8  9  1  0
  9 10  2  0
 10 11  1  0
 11 12  1  0
 11 13  1  0
 10 14  1  0
 14 15  2  0
 14 16  1  0
 16 17  1  0
 17 18  1  0
 18 19  1  0
 19 20  1  0
 20 21  1  0
 21 22  1  0
 22 23  1  0
 23 24  1  0
 24 25  1  0
 23 26  1  0
  9 27  1  0
 27 28  2  0
 28 29  1  0
 29 30  2  0
 30 31  1  0
 31 32  2  0
 29 33  1  0
 33 34  1  0
 34 35  1  0
 35 36  1  0
 36 37  1  0
 37 38  1  0
 36 39  1  0
 39 40  2  0
 40 41  1  0
 41 42  2  0
 42 43  1  0
 43 44  2  0
 42 45  1  0
 45 46  1  0
 46 47  2  0
 46 48  2  0
 46 49  1  0
 49 50  2  0
 50 51  1  0
 51 52  2  0
 52 53  1  0
 53 54  2  0
 52 55  1  0
 55 56  1  0
 56 57  1  1
 57 58  1  0
 58 59  1  0
 59 60  2  0
 60 61  1  0
 61 62  2  0
 62 63  1  0
 63 64  2  0
 56 65  1  0
 65 66  1  0
 66 67  1  0
 67 68  1  0
 67 69  1  0
 51 70  1  0
 70 71  2  0
 70 72  1  0
  7  2  1  0
  8 12  2  0
 25 20  1  0
 32 27  1  0
 38 33  1  0
 44 39  1  0
 54 49  1  0
 64 59  1  0
M  CHG  2  70   1  72  -1
M  END

