BCL-xL compound 6 reconstructed pose
     RDKit          3D

 79 86  0  0  0  0  0  0  0  0999 V2000
   31.4580    8.8079  -28.2235 Cl  0  0  0  0  0  0  0  0  0  0  0  0
   30.9723    9.2858  -26.6437 C   0  0  0  0  0  0  0  0  0  0  0  0
   29.8936   10.1521  -26.4837 C   0  0  0  0  0  0  0  0  0  0  0  0
   29.5009   10.5423  -25.2001 C   0  0  0  0  0  0  0  0  0  0  0  0
   30.1856   10.0710  -24.0717 C   0  0  0  0  0  0  0  0  0  0  0  0
   31.2691    9.1981  -24.2496 C   0  0  0  0  0  0  0  0  0  0  0  0
   31.6618    8.8058  -25.5326 C   0  0  0  0  0  0  0  0  0  0  0  0
   29.7872   10.4946  -22.7359 C   0  0  0  0  0  0  0  0  0  0  0  0
   29.4880   11.7582  -22.2238 C   0  0  0  0  0  0  0  0  0  0  0  0
   29.1507   11.6003  -20.8918 C   0  0  0  0  0  0  0  0  0  0  0  0
   29.2473   10.3018  -20.5961 N   0  0  0  0  0  0  0  0  0  0  0  0
   29.6719    9.6296  -21.6864 C   0  0  0  0  0  0  0  0  0  0  0  0
   29.0289    9.7154  -19.2339 C   0  0  0  0  0  0  0  0  0  0  0  0
   30.1918    9.9667  -18.2740 C   0  0  0  0  0  0  0  0  0  0  0  0
   31.4820    9.2650  -18.6913 C   0  0  1  0  0  0  0  0  0  0  0  0
   32.6218    9.5500  -17.7078 C   0  0  0  0  0  0  0  0  0  0  0  0
   33.7656    8.7947  -18.1174 O   0  0  0  0  0  0  0  0  0  0  0  0
   31.2577    7.8508  -18.7280 O   0  0  0  0  0  0  0  0  0  0  0  0
   28.7857   12.6211  -19.9302 C   0  0  0  0  0  0  0  0  0  0  0  0
   29.5971   13.3259  -19.3420 O   0  0  0  0  0  0  0  0  0  0  0  0
   27.4332   12.6880  -19.7213 N   0  0  0  0  0  0  0  0  0  0  0  0
   26.8078   13.6762  -18.8780 C   0  0  0  0  0  0  0  0  0  0  0  0
   25.3839   13.2743  -18.4931 C   0  0  0  0  0  0  0  0  0  0  0  0
   24.4316   13.1467  -19.6974 C   0  0  0  0  0  0  0  0  0  0  0  0
   24.8230   12.0663  -20.6308 N   0  0  0  0  0  0  0  0  0  0  0  0
   24.3940   10.7326  -20.1307 C   0  0  0  0  0  0  0  0  0  0  0  0
   23.0431   10.1857  -20.6715 C   0  0  0  0  0  0  0  0  0  0  0  0
   22.0984   11.2585  -21.0022 N   0  0  0  0  0  0  0  0  0  0  0  0
   22.6719   12.1501  -22.0276 C   0  0  0  0  0  0  0  0  0  0  0  0
   24.2165   12.2880  -21.9611 C   0  0  0  0  0  0  0  0  0  0  0  0
   20.8010   10.7361  -21.4146 C   0  0  0  0  0  0  0  0  0  0  0  0
   29.4276   12.9792  -22.8861 C   0  0  0  0  0  0  0  0  0  0  0  0
   30.5557   13.6127  -23.4930 C   0  0  0  0  0  0  0  0  0  0  0  0
   30.4781   14.8797  -24.1269 C   0  0  0  0  0  0  0  0  0  0  0  0
   29.2369   15.5537  -24.1050 C   0  0  0  0  0  0  0  0  0  0  0  0
   28.1134   14.9627  -23.5120 C   0  0  0  0  0  0  0  0  0  0  0  0
   28.2188   13.7112  -22.9037 C   0  0  0  0  0  0  0  0  0  0  0  0
   31.5425   15.4194  -24.7924 N   0  0  0  0  0  0  0  0  0  0  0  0
   32.6545   14.5212  -25.1667 C   0  0  0  0  0  0  0  0  0  0  0  0
   33.9057   15.1818  -25.7536 C   0  0  0  0  0  0  0  0  0  0  0  0
   33.7142   16.4378  -26.4857 N   0  0  0  0  0  0  0  0  0  0  0  0
   32.6446   17.3251  -26.0343 C   0  0  0  0  0  0  0  0  0  0  0  0
   31.3548   16.6716  -25.5370 C   0  0  0  0  0  0  0  0  0  0  0  0
   34.7766   16.9773  -27.1681 C   0  0  0  0  0  0  0  0  0  0  0  0
   34.6695   18.1354  -27.9599 C   0  0  0  0  0  0  0  0  0  0  0  0
   35.7971   18.7323  -28.5749 C   0  0  0  0  0  0  0  0  0  0  0  0
   37.0590   18.1351  -28.4207 C   0  0  0  0  0  0  0  0  0  0  0  0
   37.1671   16.9815  -27.6393 C   0  0  0  0  0  0  0  0  0  0  0  0
   36.0451   16.4269  -26.9934 C   0  0  0  0  0  0  0  0  0  0  0  0
   38.2950   18.6905  -29.0363 C   0  0  0  0  0  0  0  0  0  0  0  0
   38.2569   20.0644  -29.3258 N   0  0  0  0  0  0  0  0  0  0  0  0
   39.5641   20.8621  -29.9897 S   0  0  0  0  0  0  0  0  0  0  0  0
   40.6511   20.8681  -29.0376 O   0  0  0  0  0  0  0  0  0  0  0  0
   39.7238   20.4525  -31.3657 O   0  0  0  0  0  0  0  0  0  0  0  0
   38.9256   22.5290  -30.0287 C   0  0  0  0  0  0  0  0  0  0  0  0
   38.2815   22.9994  -31.1708 C   0  0  0  0  0  0  0  0  0  0  0  0
   37.8006   24.3224  -31.1891 C   0  0  0  0  0  0  0  0  0  0  0  0
   37.9447   25.1963  -30.0805 C   0  0  0  0  0  0  0  0  0  0  0  0
   38.6274   24.6793  -28.9649 C   0  0  0  0  0  0  0  0  0  0  0  0
   39.1122   23.3653  -28.9303 C   0  0  0  0  0  0  0  0  0  0  0  0
   37.5064   26.5104  -30.1128 N   0  0  0  0  0  0  0  0  0  0  0  0
   37.6999   27.5361  -29.0788 C   0  0  2  0  0  0  0  0  0  0  0  0
   36.5421   27.4408  -28.0594 C   0  0  0  0  0  0  0  0  0  0  0  0
   36.8370   28.4046  -26.5297 S   0  0  0  0  0  0  0  0  0  0  0  0
   35.7688   29.8045  -26.8127 C   0  0  0  0  0  0  0  0  0  0  0  0
   34.3841   29.6481  -26.9318 C   0  0  0  0  0  0  0  0  0  0  0  0
   33.5646   30.7591  -27.1437 C   0  0  0  0  0  0  0  0  0  0  0  0
   34.1241   32.0328  -27.2275 C   0  0  0  0  0  0  0  0  0  0  0  0
   35.5013   32.1978  -27.0919 C   0  0  0  0  0  0  0  0  0  0  0  0
   36.3206   31.0873  -26.8781 C   0  0  0  0  0  0  0  0  0  0  0  0
   37.7515   28.9176  -29.7669 C   0  0  0  0  0  0  0  0  0  0  0  0
   38.9441   29.0391  -30.7296 C   0  0  0  0  0  0  0  0  0  0  0  0
   39.1285   30.4126  -31.2354 N   0  0  0  0  0  0  0  0  0  0  0  0
   38.0429   30.8196  -32.1311 C   0  0  0  0  0  0  0  0  0  0  0  0
   40.4096   30.5144  -31.9416 C   0  0  0  0  0  0  0  0  0  0  0  0
   37.1366   24.7731  -32.4193 N   0  0  0  0  0  0  0  0  0  0  0  0
   37.4915   24.2510  -33.4852 O   0  0  0  0  0  0  0  0  0  0  0  0
   36.2455   25.6319  -32.3204 O   0  0  0  0  0  0  0  0  0  0  0  0
   39.2610   17.9780  -29.2520 O   0  0  0  0  0  0  0  0  0  0  0  0
  1  2  1  0
  2  3  2  0
  3  4  1  0
  4  5  2  0
  5  6  1  0
  6  7  2  0
  5  8  1  0
  8  9  1  0
  9 10  2  0
 10 11  1  0
 11 12  1  0
 11 13  1  0
 13 14  1  0
 14 15  1  0
 15 16  1  0
 16 17  1  0
 15 18  1  1
 10 19  1  0
 19 20  2  0
 19 21  1  0
 21 22  1  0
 22 23  1  0
 23 24  1  0
 24 25  1  0
 25 26  1  0
 26 27  1  0
 27 28  1  0
 28 29  1  0
 29 30  1  0
 28 31  1  0
  9 32  1  0
 32 33  2  0
 33 34  1  0
 34 35  2  0
 35 36  1  0
 36 37  2  0
 34 38  1  0
 38 39  1  0
 39 40  1  0
 40 41  1  0
 41 42  1  0
 42 43  1  0
 41 44  1  0
 44 45  2  0
 45 46  1  0
 46 47  2  0
 47 48  1  0
 48 49  2  0
 47 50  1  0
 50 51  1  0
 51 52  1  0
 52 53  2  0
 52 54  2  0
 52 55  1  0
 55 56  2  0
 56 57  1  0
 57 58  2  0
 58 59  1  0
 59 60  2  0
 58 61  1  0
 61 62  1  0
 62 63  1  1
 63 64  1  0
 64 65  1  0
 65 66  2  0
 66 67  1  0
 67 68  2  0
 68 69  1  0
 69 70  2  0
 62 71  1  0
 71 72  1  0
 72 73  1  0
 73 74  1  0
 73 75  1  0
 57 76  1  0
 76 77  2  0
 76 78  1  0
 50 79  2  0
  7  2  1  0
  8 12  2  0
 30 25  1  0
 37 32  1  0
 43 38  1  0
 49 44  1  0
 60 55  1  0
 70 65  1  0
M  CHG  2  76   1  78  -1
M  END

